*Heading
Two-dimensional neuron migration 
**
**	UNITS:	Length - meters, Time - sec, Angle - radians,
**		Temperature - Kelvin, Force - Newtons,
**		Stress - Newton/meter^2 = Pa, Mass - kilograms,
**		Density - kg/meter^3, Conductivity - Watt/m-K,
**		Specific Heat - J/m^3-K, Energy - Joules,
**	        Chemical potential - Joules/mole,
**		Fluid content - moles/volume
**
**
**
**
** Shuolun Wang 
**
************************************************************************
**			PARAMETERS
************************************************************************
*Parameter
**	MATERIAL PROPERTIES
**
** smooth parameter for neuron cell migration  
alpha = 0.1
alpha2 = 0.1
alpha3 = 0.1
**
** smooth parameter for source term 
alpha_Gc  = 0.05
alpha_Gc2 = 0.05
alpha_Gc3 = 0.05
**
** smooth parameter for velocity 
alpha_v = 0.05
alpha_v2 = 0.05 
alpha_v3 = 0.05
**
** smooth parameter for diffusivity 
alpha_d = 1.0
alpha_d2 = 1.0 
alpha_d3 = 1.0 
** 
** smooth parameter for stiffness 
***alpha_mu = 1.0
alpha_mu = 1.0
**
** smooth parameter for growth parameter 
alpha_k = 1.0
**
**
** base value for source term (#/micro^3 day)
Gc  = 0.0000141
Gc2 = 0.0000141
Gc3 = 0.0000141
**
** base value for velocity (micro/day)
vel =  1472.2
vel2 = 1472.2
vel3 = 1472.2
**
** diffusivity (micro^2/day)
diff  = 31612.6
diff2 = 31612.6
diff3 = 31612.6
**
** cell migration threshold 
c0  = 0.000001
c02 = 0.000001 
c03 = 0.000001
**
** shape parameter for growth
k_s = 10000.0
betak = 1.0
k_c_normal = k_s*betak
k_c_para = k_s/betak
alpha_normal = 1.0 
alpha_para = 1.0
**
** mechanical parameter(Pa) 
lam_s = 930.0
mu_s = 100.0
**
** stiffness ratio 
betaE = 9.0 
lam_c = lam_s*betaE
mu_c = mu_s*betaE
**
** delta function parameter for Gc as function of time
epsilon1 = 20.0
epsilon2 = 20.0 
epsilon3 = 20.0 
**
**
** final destinations for cells 
delta_v1 = 191.6
delta_v2 = 210.7
delta_v3 = 222.7
**
**	ELEMENT PROPERTIES
**
** number of volume integration points
nInt = 4
**
** number of local sdv's used in the solution
nlSdv = 11
**
** number of global sdv's used for visualization
ngSdv = 11
**
** number of element variables
nVars = nInt*nlSdv
**
**
**
**	BOUNDARY AND INITIAL CONDITIONS
**
** loading/irradiation times (day)
time = 50.0
**
**
**
** initial neuron cell density  
initc = 0.0
initc2 = 0.0
initc3 = 0.0
**
************************************************************************
**		MODEL DEFINITION
************************************************************************
*Node
      1,  -221.046387,   90.8817825
      2,  -227.457001,   73.3778687
      3,  -234.468643,   46.3190842
      4,  -237.365402,   27.9046421
      5,  -208.923584,   116.068657
      6,        -239.,           0.
      7,  -219.083328,           0.
      8,  -199.166672,           0.
      9,      -179.25,           0.
     10,  -159.333328,           0.
     11,  -139.416672,           0.
     12,       -119.5,           0.
     13,  -99.5833359,           0.
     14,  -79.6666641,           0.
     15,       -59.75,           0.
     16,  -39.8333321,           0.
     17,   -19.916666,           0.
     18,           0.,           0.
     19,    19.916666,           0.
     20,   39.8333321,           0.
** ... 1189 like lines cut
*User Element,Nodes=4,Type=U1,Iproperties=3,Properties=41,Coordinates=2,Variables=<nVars>,Unsymm
1,2,11,12,13
*Element, type=U1
   1,  341,    7,  253,  357
   2,  326,  324,  341,   51
   3,  250,  251,  324,  326
   4,  322,  325,  249,    4
   5,  551,  543,  156,  514
   6,  448,  475,  514,  156
   7,  158,  601,  709,  537
   8,  555,  533,  159,  499
   9,  159,  441,  462,  499
  10,  465,  611, 1020,  442
  11,  161,  444,  468,  503
  12,  162,  445,  471,  508
  13,  163,  446,  481,  511
  14,  487,  516,  447,  165
  15,  491,  519,  443,  166
  16,  166,  436,  488,  491
  17,  167,  437,  480,  515
  18,  168,  438,  470,  510
  19,  169,  439,  467,  507
  20,  170,  440,  464,  502
** ... 1126 like lines cut
*Nset, nset=halfcircle-1_all, generate
    1,  1209,     1
*Elset, elset=halfcircle-1_all, generate
    1,  1146,     1
*Nset, nset=halfcircle-1_bot
   6,   7,   8,   9,  10,  11,  12,  13,  14,  15,  16,  17,  18,  19,  20,  21
  22,  23,  24,  25,  26,  27,  28,  29,  30, 252, 253, 254, 255, 256, 257, 258
 259, 260, 261, 262, 263, 264, 265, 266, 267, 268, 269, 270, 271, 272, 273, 274
 275,
*Elset, elset=halfcircle-1_bot
   1,  55,  56,  58,  65,  67,  68,  69,  70, 325, 337, 338, 339, 340, 400, 401
 402, 403, 404, 405, 406, 407, 408, 413, 414, 415, 445, 447, 449, 451, 453, 456
 457, 458, 459, 461, 463, 464, 465, 470, 471, 472, 473, 474, 475, 476, 477, 478
*Nset, nset=halfcircle-1_top
   1,   2,   3,   4,   5,   6,  30,  31,  32,  33,  34,  35,  36,  37,  38,  39
  40,  41,  42,  43,  44,  45,  46,  47,  48,  49,  50, 244, 245, 246, 247, 248
 249, 250, 251, 276, 277, 278, 279, 280, 281, 282, 283, 284, 285, 286, 287, 288
 289, 290, 291, 292, 293, 294, 295, 296, 297, 298, 299, 300, 301, 302, 303, 304
 305, 306, 307, 308, 309, 310, 311, 312, 313, 314, 315, 316, 317
*Elset, elset=halfcircle-1_top
   3,   4,  28,  29,  30,  31,  51,  77,  80,  82,  83,  84,  85,  86,  87, 100
 101, 102, 103, 112, 121, 122, 130, 151, 153, 154, 155, 160, 161, 162, 164, 175
 191, 195, 247, 341, 383, 391, 393, 395, 397, 398, 401, 414, 416, 417, 419, 421
 422, 423, 424, 426, 427, 428, 429, 430, 431, 432, 433, 434, 437, 438, 440, 443
 444, 486, 488, 498, 502, 503, 509, 511, 512, 518, 519, 520
*Nset, nset=midpoint
18
** Make the dummy mesh, shares nodes with the real mesh,
**  allows visualization of the results, access to 
**  hourglass controls, and access to mechanical, 
**  traction-type boundary conditions
*Element, type=CPE4
10001,341,7,253,357
10002,326,324,341,51
10003,250,251,324,326
10004,322,325,249,4
10005,551,543,156,514
10006,448,475,514,156
10007,158,601,709,537
10008,555,533,159,499
10009,159,441,462,499
10010,465,611,1020,442
10011,161,444,468,503
10012,162,445,471,508
10013,163,446,481,511
10014,487,516,447,165
10015,491,519,443,166
10016,166,436,488,491
10017,167,437,480,515
10018,168,438,470,510
10019,169,439,467,507
10020,170,440,464,502
** ... 1126 like lines cut
*Elset, elset=ElDummy, generate
10001,  11146,    1
**
** make a dummy element which is not connected to anything with CPE4T
**  just so that we can have the coupled thermal-displacement step
**
*Node
999996,  0.0, 0.0
999997,  .000001, 0.0
999998,  .000001, .000001
999999,  0.0, .000001
*Nset, nset=tempElement
999996,999997,999998,999999
*Element, Type=CPE4T
999999,999996,999997,999998,999999
*Elset,elset=tempElement
999999
************************************************************************
**			MATERIAL DEFINITION
************************************************************************
**
**
**
** Material properties for the real material
**
*uel property,elset=halfcircle-1_all
<alpha>,<alpha2>,<alpha3>,<alpha_Gc>,<alpha_Gc2>,<alpha_Gc3>,<alpha_v>,<alpha_v2>,
<alpha_v3>,<alpha_d>,<alpha_d2>,<alpha_d3>,<alpha_mu>,<alpha_k>,<Gc>,<Gc2>,
<Gc3>,<vel>,<vel2>,<vel3>,<diff>,<diff2>,<diff3>,<c0>,
<c02>,<c03>,<k_s>,<k_c_normal>,<k_c_para>,<alpha_normal>,<alpha_para>,<lam_c>,
<lam_s>,<mu_c>,<mu_s>,<epsilon1>,<epsilon2>,<epsilon3>,<delta_v1>,<delta_v2>,
<delta_v3>,<nlSdv>,<ngSdv>,<nInt>
**
** Dummy mesh material properties
**
*Solid section, elset=tempElement, material=Material-2
*Solid section, elset=ElDummy, material=Material-1
**
*Material, name=Material-2
*Elastic
1.e-20
*Conductivity
1.0
*Density
1.0
*Specific heat
1.0
**
*Material, name=Material-1
*User output variables
<ngSdv>
*Elastic
1.e-20
**
** 
**
************************************************************************
**			INITIAL CONDITIONS
************************************************************************
**
*Initial conditions, type=temperature
halfcircle-1_all,<initc>,<initc2>,<initc3>
**
*Initial conditions, type=temperature
tempElement,0.0,0.0,0.0
**
************************************************************************
**			AMPLITUDE DEFINITION
************************************************************************
****Amplitude, name=lightamp
****0.0,1.0,<tXlink>,1.0
****Amplitude, name=riboamp
****0.0,0.0,<tLoad>,1.0	
****AMPLITUDE, NAME=lightamp, DEFINITION=TABULAR
***0.0,0.0
****1800.0,0.0
****1801.0,1.0
****3600.0,1.0
**
************************************************************************
**			STEP DEFINITION
************************************************************************
*Step, Name=migration, nlgeom=yes, inc=100000
*Coupled temperature-displacement, steady state
0.1,<time>,1.e-6,100.0
*CONTROLS, PARAMETERS=LINE SEARCH
10,1.0,0.0001,0.25,0.10
*CONTROLS, PARAMETERS=TIME INCREMENTATION
,,,,,,,20,,,,,,
**
*Boundary
***halfcircle-1_all,1,2
halfcircle-1_bot,2,2
midpoint,1,1
***halfcircle-1_bot,1,2
**
***BOUNDARY, TYPE=DISPLACEMENT
***halfcircle-1_top,2,2,1.0
**
**
*Boundary
tempElement,encastre
tempElement,11,11,0.0
tempElement,12,12,0.0
tempElement,13,13,0.0
**
**
*Output, field
*node output, nset=halfcircle-1_all
u,nt,coord
*node output, nset=tempElement
u
*element output, elset=ElDummy
uvarm,le
**
***Output, history
***node output, nset=n4
***u,rf
**
*End Step
************************************************************************
