*Heading
Three-dimensional neuron migration 
**
**	UNITS:	Length - meters, Time - sec, Angle - radians,
**		Temperature - Kelvin, Force - Newtons,
**		Stress - Newton/meter^2 = Pa, Mass - kilograms,
**		Density - kg/meter^3, Conductivity - Watt/m-K,
**		Specific Heat - J/m^3-K, Energy - Joules,
**	        Chemical potential - Joules/mole,
**		Fluid content - moles/volume
**
** Shuolun Wang 
**
************************************************************************
**			PARAMETERS
************************************************************************
*Parameter
**	MATERIAL PROPERTIES
**
** smooth parameter for neuron cell migration  
alpha = 0.1
alpha2 = 0.1
alpha3 = 0.1
**
** smooth parameter for source term 
alpha_Gc = 0.05
alpha_Gc2 = 0.05
alpha_Gc3 = 0.05
**
** smooth parameter for velocity 
alpha_v = 0.05
alpha_v2 = 0.05 
alpha_v3 = 0.05
**
** smooth parameter for diffusivity 
alpha_d = 1.0
alpha_d2 = 1.0 
alpha_d3 = 1.0 
** 
** smooth parameter for stiffness 
alpha_mu = 1.0
**
** smooth parameter for growth parameter 
alpha_k = 20.0
**
**
** base value for source term (#/micro^3 day)
Gc  = 0.000014
Gc2 = 0.000014
Gc3 = 0.000014
**
** base value for velocity (micro/day)
vel =  1500.0
vel2 = 1500.0
vel3 = 1500.0
**
** diffusivity (micro^2/day)
diff  = 30000.0
diff2 = 30000.0
diff3 = 30000.0
**
** cell migration threshold 
c0  = 0.000001
c02 = 0.000001 
c03 = 0.000001
**
** shape parameter for growth
****k_s = 0.0
k_s = 200000.0
betak = 1.0
k_c_normal = k_s*betak
k_c_para = k_s/betak
alpha_normal = 1.0 
alpha_para = 1.0
**
** mechanical parameter(Pa) 
lam_s = 930.0
mu_s = 100.0
**
** stiffness ratio 
betaE = 10.0 
lam_c = lam_s*betaE
mu_c = mu_s*betaE
**
** delta function parameter for Gc as function of time
epsilon1 = 20.0
epsilon2 = 20.0 
epsilon3 = 20.0 
**
**
**	ELEMENT PROPERTIES
**
** number of volume integration points
nInt = 8
**
** number of local sdv's used in the solution
nlSdv = 11
**
** number of global sdv's used for visualization
ngSdv = 11
**
** number of element variables
nVars = nInt*nlSdv
**
**
**	BOUNDARY AND INITIAL CONDITIONS
**
** loading/irradiation times (days)
time1 = 8.0
time2 = 9.0
time3 = 10.0
**
**
**
** initial neuron cell density  
initc = 0.0
initc2 = 0.0
initc3 = 0.0
**
**
************************************************************************
**		MODEL DEFINITION
************************************************************************
** 
*System
       239.5,         9.9,        9.99,       239.5,         9.9,       10.99
       239.5,        10.9,        9.99
*Node
      1, 0.00999999978,  0.100000001,        239.5
      2, 0.00999999978,  -9.89999962,        239.5
      3, 0.00999999978,  0.100000001,   231.241379
      4, 0.00999999978,  -9.89999962,   231.241379
      5, 0.00999999978,  0.100000001,   222.982758
      6, 0.00999999978,  -9.89999962,   222.982758
      7, 0.00999999978,  0.100000001,   214.724136
      8, 0.00999999978,  -9.89999962,   214.724136
      9, 0.00999999978,  0.100000001,   206.465515
     10, 0.00999999978,  -9.89999962,   206.465515
     11, 0.00999999978,  0.100000001,   198.206894
     12, 0.00999999978,  -9.89999962,   198.206894
     13, 0.00999999978,  0.100000001,   189.948273
     14, 0.00999999978,  -9.89999962,   189.948273
     15, 0.00999999978,  0.100000001,   181.689651
     16, 0.00999999978,  -9.89999962,   181.689651
     17, 0.00999999978,  0.100000001,    173.43103
     18, 0.00999999978,  -9.89999962,    173.43103
     19, 0.00999999978,  0.100000001,   165.172409
     20, 0.00999999978,  -9.89999962,   165.172409
** ... 100 like lines cut
*User Element,Nodes=8,Type=U3,Iproperties=3,Properties=41,Coordinates=3,Variables=<nVars>,Unsymm
1,2,3,11,12,13
*Element, type=U3
 1,  61,  62,  64,  63,   1,   2,   4,   3
 2,  63,  64,  66,  65,   3,   4,   6,   5
 3,  65,  66,  68,  67,   5,   6,   8,   7
 4,  67,  68,  70,  69,   7,   8,  10,   9
 5,  69,  70,  72,  71,   9,  10,  12,  11
 6,  71,  72,  74,  73,  11,  12,  14,  13
 7,  73,  74,  76,  75,  13,  14,  16,  15
 8,  75,  76,  78,  77,  15,  16,  18,  17
 9,  77,  78,  80,  79,  17,  18,  20,  19
10,  79,  80,  82,  81,  19,  20,  22,  21
11,  81,  82,  84,  83,  21,  22,  24,  23
12,  83,  84,  86,  85,  23,  24,  26,  25
13,  85,  86,  88,  87,  25,  26,  28,  27
14,  87,  88,  90,  89,  27,  28,  30,  29
15,  89,  90,  92,  91,  29,  30,  32,  31
16,  91,  92,  94,  93,  31,  32,  34,  33
17,  93,  94,  96,  95,  33,  34,  36,  35
18,  95,  96,  98,  97,  35,  36,  38,  37
19,  97,  98, 100,  99,  37,  38,  40,  39
20,  99, 100, 102, 101,  39,  40,  42,  41
** ... 9 like lines cut
*System
*Nset, nset=all, generate
   1,  120,    1
*Elset, elset=all, generate
  1,  29,   1
*Nset, nset=n1
 59,
*Nset, nset=n2
 62,
*Nset, nset=sideline, generate
  1,  59,   2
*Elset, elset=sideline, generate
  1,  29,   1
*Nset, nset=xyface, generate
   1,  120,    1
*Elset, elset=xyface, generate
  1,  29,   1
*Nset, nset=xzface, generate
   1,  120,    1
*Elset, elset=xzface, generate
  1,  29,   1
*Nset, nset=yzface
  1,  2, 61, 62
*Elset, elset=yzface
 1,
** Make the dummy mesh, shares nodes with the real mesh,
**  allows visualization of the results, access to 
**  hourglass controls, and access to mechanical, 
**  traction-type boundary conditions
*Element, type=C3D8
10001,  61,  62,  64,  63,   1,   2,   4,   3
10002,  63,  64,  66,  65,   3,   4,   6,   5
10003,  65,  66,  68,  67,   5,   6,   8,   7
10004,  67,  68,  70,  69,   7,   8,  10,   9
10005,  69,  70,  72,  71,   9,  10,  12,  11
10006,  71,  72,  74,  73,  11,  12,  14,  13
10007,  73,  74,  76,  75,  13,  14,  16,  15
10008,  75,  76,  78,  77,  15,  16,  18,  17
10009,  77,  78,  80,  79,  17,  18,  20,  19
10010,  79,  80,  82,  81,  19,  20,  22,  21
10011,  81,  82,  84,  83,  21,  22,  24,  23
10012,  83,  84,  86,  85,  23,  24,  26,  25
10013,  85,  86,  88,  87,  25,  26,  28,  27
10014,  87,  88,  90,  89,  27,  28,  30,  29
10015,  89,  90,  92,  91,  29,  30,  32,  31
10016,  91,  92,  94,  93,  31,  32,  34,  33
10017,  93,  94,  96,  95,  33,  34,  36,  35
10018,  95,  96,  98,  97,  35,  36,  38,  37
10019,  97,  98, 100,  99,  37,  38,  40,  39
10020,  99, 100, 102, 101,  39,  40,  42,  41
** ... 9 like lines cut
*Elset, elset=ElDummy, generate
10001,  10029,    1
**
** make a dummy element which is not connected to anything with CPE4T
**  just so that we can have the coupled thermal-displacement step
**
*Node
999996,  0.0, 0.0
999997,  .000001, 0.0
999998,  .000001, .000001
999999,  0.0, .000001
*Nset, nset=tempElement
999996,999997,999998,999999
*Element, Type=CPE4T
999999,999996,999997,999998,999999
*Elset,elset=tempElement
999999
************************************************************************
**			MATERIAL DEFINITION *Include, Input=parameter.inp
************************************************************************
**
** Material properties for the real material
**
*uel property,elset=all
*Include, Input=parameter.inp
** Dummy mesh material properties
**
*Solid section, elset=tempElement, material=Material-2
*Solid section, elset=ElDummy, material=Material-1
**
*Material, name=Material-2
*Elastic
1.e-20
*Conductivity
1.0
*Density
1.0
*Specific heat
1.0
**
*Material, name=Material-1
*User output variables
<ngSdv>
*Elastic
1.e-20
**
** 
**
************************************************************************
**			INITIAL CONDITIONS
************************************************************************
**
*Initial conditions, type=temperature
all,<initc>,<initc2>,<initc3>
**
*Initial conditions, type=temperature
tempElement,0.0,0.0,0.0
**
************************************************************************
**			STEP DEFINITION
************************************************************************
*Step, Name=migration1, nlgeom=yes, inc=100000
*Coupled temperature-displacement, steady state
0.1,<time1>,1.e-6,1.0
*CONTROLS, PARAMETERS=LINE SEARCH
10,1.0,0.0001,0.25,0.10
*CONTROLS, PARAMETERS=TIME INCREMENTATION
,,,,,,,30,,,,,,
**
** 
** BOUNDARY CONDITIONS
** 
** Name: xysym Type: Symmetry/Antisymmetry/Encastre
*Boundary
xyface, ZSYMM
** Name: xzsym Type: Symmetry/Antisymmetry/Encastre
*Boundary
xzface, YSYMM
** Name: yzsym Type: Symmetry/Antisymmetry/Encastre
*Boundary
yzface, XSYMM
**
*Boundary
tempElement,encastre
tempElement,11,11,0.0
tempElement,12,12,0.0
tempElement,13,13,0.0
**
*Output, field
*node output, nset=all
u,nt
*element output, elset=ElDummy
uvarm,le
*End Step
************************************************************************
*Step, Name=migration2, nlgeom=yes, inc=100000
*Coupled temperature-displacement, steady state
0.1,<time2>,1.e-6,1.0
*CONTROLS, PARAMETERS=LINE SEARCH
10,1.0,0.0001,0.25,0.10
*CONTROLS, PARAMETERS=TIME INCREMENTATION
,,,,,,,30,,,,,,
**
** 
** BOUNDARY CONDITIONS
** 
** Name: xysym Type: Symmetry/Antisymmetry/Encastre
*Boundary
xyface, ZSYMM
** Name: xzsym Type: Symmetry/Antisymmetry/Encastre
*Boundary
xzface, YSYMM
** Name: yzsym Type: Symmetry/Antisymmetry/Encastre
*Boundary
yzface, XSYMM
**
*Boundary
tempElement,encastre
tempElement,11,11,0.0
tempElement,12,12,0.0
tempElement,13,13,0.0
**
*Output, field
*node output, nset=all
u,nt
*element output, elset=ElDummy
uvarm,le
*End Step
************************************************************************
*Step, Name=migration3, nlgeom=yes, inc=100000
*Coupled temperature-displacement, steady state
0.1,<time3>,1.e-6,1.0
*CONTROLS, PARAMETERS=LINE SEARCH
10,1.0,0.0001,0.25,0.10
*CONTROLS, PARAMETERS=TIME INCREMENTATION
,,,,,,,30,,,,,,
**
** 
** BOUNDARY CONDITIONS
** 
** Name: xysym Type: Symmetry/Antisymmetry/Encastre
*Boundary
xyface, ZSYMM
** Name: xzsym Type: Symmetry/Antisymmetry/Encastre
*Boundary
xzface, YSYMM
** Name: yzsym Type: Symmetry/Antisymmetry/Encastre
*Boundary
yzface, XSYMM
**
*Boundary
tempElement,encastre
tempElement,11,11,0.0
tempElement,12,12,0.0
tempElement,13,13,0.0
**
*Output, field
*node output, nset=all
u,nt
*element output, elset=ElDummy
uvarm,le
*End Step
