*Heading
Three-dimensional neuron migration 
**
**	UNITS:	Length - meters, Time - sec, Angle - radians,
**		Temperature - Kelvin, Force - Newtons,
**		Stress - Newton/meter^2 = Pa, Mass - kilograms,
**		Density - kg/meter^3, Conductivity - Watt/m-K,
**		Specific Heat - J/m^3-K, Energy - Joules,
**	        Chemical potential - Joules/mole,
**		Fluid content - moles/volume
**
** Shuolun Wang 
**
************************************************************************
**			PARAMETERS
************************************************************************
*Parameter
**	MATERIAL PROPERTIES
**
** smooth parameter for neuron cell migration  
alpha = 0.1
alpha2 = 0.1
alpha3 = 0.1
**
** smooth parameter for source term 
alpha_Gc  = 0.05
alpha_Gc2 = 0.05
alpha_Gc3 = 0.05
**
** smooth parameter for velocity 
alpha_v = 0.05
alpha_v2 = 0.05 
alpha_v3 = 0.05
**
** smooth parameter for diffusivity 
alpha_d = 1.0
alpha_d2 = 1.0 
alpha_d3 = 1.0 
** 
** smooth parameter for stiffness 
***alpha_mu = 1.0
alpha_mu = 1.0
**
** smooth parameter for growth parameter 
alpha_k = 1.0
**
**
** base value for source term (#/micro^3 day)
Gc  = 0.000002
Gc2 = 0.000002
Gc3 = 0.0000141
**
** base value for velocity (micro/day)
vel =  1472.2
vel2 = 1472.2
vel3 = 1472.2
**
** diffusivity (micro^2/day)
diff  = 31612.6
diff2 = 31612.6
diff3 = 31612.6
**
** cell migration threshold 
c0  = 0.000001
c02 = 0.000001 
c03 = 0.000001
**
** shape parameter for growth
****k_s = 0.0
k_s = 100000.0
betak = 1.0
k_c_normal = k_s*betak
k_c_para = k_s/betak
alpha_normal = 1.0 
alpha_para = 1.0
**
** mechanical parameter(Pa) 
lam_s = 930.0
mu_s = 100.0
**
** stiffness ratio 
betaE = 6.0 
lam_c = lam_s*betaE
mu_c = mu_s*betaE
**
** delta function parameter for Gc as function of time
epsilon1 = 20.0
epsilon2 = 20.0 
epsilon3 = 20.0 
**
** final destinations for cells 
delta_v1 = 191.6
delta_v2 = 210.7
delta_v3 = 222.7
**
**	ELEMENT PROPERTIES
**
** number of volume integration points
nInt = 8
**
** number of local sdv's used in the solution
nlSdv = 11
**
** number of global sdv's used for visualization
ngSdv = 11
**
** number of element variables
nVars = nInt*nlSdv
**
**
**
**	BOUNDARY AND INITIAL CONDITIONS
**
** loading/irradiation times (day)
time = 50.0
**
**
**
** initial neuron cell density  
initc = 0.0
initc2 = 0.0
initc3 = 0.0
**
************************************************************************
**		MODEL DEFINITION
************************************************************************
*Node
      1,           0.,         200.,           0.
      2,         200.,           0.,           0.
      3,           0.,           0.,           0.
      4,           0.,           0.,         200.
      5,           0.,         239.,           0.
      6,           0.,           0.,         239.
      7,         239.,           0.,           0.
      8,           0.,   33.3333321,           0.
      9,           0.,   66.6666641,           0.
     10,           0.,         100.,           0.
     11,           0.,   133.333328,           0.
     12,           0.,   166.666672,           0.
     13,   34.7296371,   196.961548,           0.
     14,   68.4040298,   187.938522,           0.
     15,         100.,   173.205078,           0.
     16,   128.557526,   153.208893,           0.
     17,   153.208893,   128.557526,           0.
     18,   173.205078,         100.,           0.
     19,   187.938522,   68.4040298,           0.
     20,   196.961548,   34.7296371,           0.
** ... 480 like lines cut
****imperfection
****13, 0.0, -5.0, 0.0
*User Element,Nodes=8,Type=U3,Iproperties=3,Properties=41,Coordinates=3,Variables=<nVars>,Unsymm
1,2,3,11,12,13
*Element, type=U3
  1, 150,  29,  98, 309,  12,   1,  13,  78
  2, 309,  98,  99, 310,  78,  13,  14,  79
  3, 310,  99, 100, 311,  79,  14,  15,  80
  4, 311, 100, 101, 304,  80,  15,  16,  81
  5, 151,  28, 102, 312, 150,  29,  98, 309
  6, 312, 102, 103, 313, 309,  98,  99, 310
  7, 313, 103, 104, 314, 310,  99, 100, 311
  8, 314, 104, 105, 303, 311, 100, 101, 304
  9, 152,  27, 106, 315, 151,  28, 102, 312
 10, 315, 106, 107, 316, 312, 102, 103, 313
 11, 316, 107, 108, 317, 313, 103, 104, 314
 12, 317, 108, 109, 302, 314, 104, 105, 303
 13, 153,  26, 110, 318, 152,  27, 106, 315
 14, 318, 110, 111, 319, 315, 106, 107, 316
 15, 319, 111, 112, 320, 316, 107, 108, 317
 16, 320, 112, 113, 301, 317, 108, 109, 302
 17, 154,  25, 114, 300, 153,  26, 110, 318
 18, 300, 114, 115, 299, 318, 110, 111, 319
 19, 299, 115, 116, 298, 319, 111, 112, 320
 20, 298, 116, 117, 297, 320, 112, 113, 301
** ... 340 like lines cut
*Nset, nset=all, generate
   1,  500,    1
*Elset, elset=all, generate
   1,  360,    1
*Nset, nset=ball-1_FIXFACE_X
   1,   3,   4,   5,   6,   8,   9,  10,  11,  12,  21,  22,  23,  24,  25,  26
  27,  28,  29,  42,  43,  44,  45,  46,  55,  56,  57,  58,  59,  60,  61,  62
  63,  64,  65,  74,  75, 150, 151, 152, 153, 154, 155, 156, 157, 158, 159, 160
 161, 162, 163, 164, 165, 166, 167, 168, 169, 170, 171, 172, 173, 174, 247, 248
 249, 250, 251, 252, 253, 254, 255, 256, 257, 258, 259, 260, 261, 262, 263, 264
*Elset, elset=ball-1_FIXFACE_X
   1,   5,   9,  13,  17,  49,  53,  57,  61,  65,  69,  73,  77,  81,  85,  89
  93,  97, 101, 105, 109, 113, 117, 121, 125, 129, 133, 137, 141, 145, 146, 147
 148, 149, 150, 169, 173, 177, 181, 185, 186, 187, 188, 189, 190, 231, 232, 233
 234, 235, 236, 237, 238, 239, 240, 271, 272, 273, 274, 275, 276, 277, 278, 279
 280,
*Nset, nset=ball-1_FIXFACE_Y
   2,   3,   4,   6,   7,  30,  31,  32,  33,  34,  35,  36,  37,  38,  39,  40
  41,  42,  43,  44,  45,  46,  66,  67,  68,  69,  70,  71,  72,  73,  74,  75
  76,  77, 175, 176, 177, 178, 179, 180, 181, 182, 183, 184, 185, 186, 187, 188
 189, 190, 191, 192, 193, 194, 281, 282, 283, 284, 285, 286, 287, 288, 289, 290
 291, 292, 293, 294, 295, 296
*Elset, elset=ball-1_FIXFACE_Y
  25,  30,  35,  40,  45,  46,  47,  48,  49,  66,  67,  68,  69,  86,  87,  88
  89, 106, 107, 108, 109, 126, 127, 128, 129, 150, 155, 160, 165, 190, 195, 200
 205, 206, 207, 208, 209, 210, 275, 280, 285, 290, 295, 300, 305, 310, 315, 320
 325, 330, 335, 340, 345, 350, 355, 360
*Nset, nset=ball-1_FIXFACE_Z
   1,   2,   3,   5,   7,   8,   9,  10,  11,  12,  13,  14,  15,  16,  17,  18
  19,  20,  30,  31,  32,  33,  47,  48,  49,  50,  51,  52,  53,  54,  64,  65
  76,  77,  78,  79,  80,  81,  82,  83,  84,  85,  86,  87,  88,  89,  90,  91
  92,  93,  94,  95,  96,  97, 265, 266, 267, 268, 269, 270, 271, 272, 273, 274
 275, 276, 277, 278, 279, 280
*Elset, elset=ball-1_FIXFACE_Z
   1,   2,   3,   4,  21,  22,  23,  24,  25,  46,  47,  48,  49,  50,  51,  52
  53,  54,  55,  56,  57,  58,  59,  60,  61,  62,  63,  64,  65, 166, 167, 168
 169, 210, 215, 220, 225, 230, 231, 232, 241, 242, 251, 252, 261, 262, 311, 312
 313, 314, 315, 336, 337, 338, 339, 340
** Make the dummy mesh, shares nodes with the real mesh,
**  allows visualization of the results, access to 
**  hourglass controls, and access to mechanical, 
**  traction-type boundary conditions
*Element, type=C3D8
10001,150,29,98,309,12,1,13,78
10002,309,98,99,310,78,13,14,79
10003,310,99,100,311,79,14,15,80
10004,311,100,101,304,80,15,16,81
10005,151,28,102,312,150,29,98,309
10006,312,102,103,313,309,98,99,310
10007,313,103,104,314,310,99,100,311
10008,314,104,105,303,311,100,101,304
10009,152,27,106,315,151,28,102,312
10010,315,106,107,316,312,102,103,313
10011,316,107,108,317,313,103,104,314
10012,317,108,109,302,314,104,105,303
10013,153,26,110,318,152,27,106,315
10014,318,110,111,319,315,106,107,316
10015,319,111,112,320,316,107,108,317
10016,320,112,113,301,317,108,109,302
10017,154,25,114,300,153,26,110,318
10018,300,114,115,299,318,110,111,319
10019,299,115,116,298,319,111,112,320
10020,298,116,117,297,320,112,113,301
** ... 340 like lines cut
*Elset, elset=ElDummy, generate
10001,  10360,    1
**
** make a dummy element which is not connected to anything with CPE4T
**  just so that we can have the coupled thermal-displacement step
**
*Node
999996,  0.0, 0.0
999997,  .000001, 0.0
999998,  .000001, .000001
999999,  0.0, .000001
*Nset, nset=tempElement
999996,999997,999998,999999
*Element, Type=CPE4T
999999,999996,999997,999998,999999
*Elset,elset=tempElement
999999
************************************************************************
**			MATERIAL DEFINITION
************************************************************************
**
** Material properties for the real material
**
*uel property,elset=all
<alpha>,<alpha2>,<alpha3>,<alpha_Gc>,<alpha_Gc2>,<alpha_Gc3>,<alpha_v>,<alpha_v2>,
<alpha_v3>,<alpha_d>,<alpha_d2>,<alpha_d3>,<alpha_mu>,<alpha_k>,<Gc>,<Gc2>,
<Gc3>,<vel>,<vel2>,<vel3>,<diff>,<diff2>,<diff3>,<c0>,
<c02>,<c03>,<k_s>,<k_c_normal>,<k_c_para>,<alpha_normal>,<alpha_para>,<lam_c>,
<lam_s>,<mu_c>,<mu_s>,<epsilon1>,<epsilon2>,<epsilon3>,<delta_v1>,<delta_v2>,
<delta_v3>,<nlSdv>,<ngSdv>,<nInt>
**
** Dummy mesh material properties
**
*Solid section, elset=tempElement, material=Material-2
*Solid section, elset=ElDummy, material=Material-1
**
*Material, name=Material-2
*Elastic
1.e-20
*Conductivity
1.0
*Density
1.0
*Specific heat
1.0
**
*Material, name=Material-1
*User output variables
<ngSdv>
*Elastic
1.e-20
**
** 
**
************************************************************************
**			INITIAL CONDITIONS
************************************************************************
**
*Initial conditions, type=temperature
all,<initc>,<initc2>,<initc3>
**
*Initial conditions, type=temperature
tempElement,0.0,0.0,0.0
**
************************************************************************
**			STEP DEFINITION
************************************************************************
*Step, Name=migration, nlgeom=yes, inc=100000
*Coupled temperature-displacement, steady state
0.1,<time>,1.e-6,100.0
*CONTROLS, PARAMETERS=LINE SEARCH
10,1.0,0.0001,0.25,0.10
*CONTROLS, PARAMETERS=TIME INCREMENTATION
,,,,,,,20,,,,,,
**
*Boundary
***all,1,2,3
ball-1_fixface_x,1,1
ball-1_fixface_y,2,2
ball-1_fixface_z,3,3
**
*Boundary
tempElement,encastre
tempElement,11,11,0.0
tempElement,12,12,0.0
tempElement,13,13,0.0
**
*Output, field
*node output, nset=all
u,nt
*element output, elset=ElDummy
uvarm,le
*End Step
